/*--------------------------------*- C++ -*----------------------------------*\
| =========                 |                                                 |
| \\      /  F ield         | OpenFOAM: The Open Source CFD Toolbox           |
|  \\    /   O peration     | Version:  dev                                   |
|   \\  /    A nd           | Web:      www.OpenFOAM.org                      |
|    \\/     M anipulation  |                                                 |
\*---------------------------------------------------------------------------*/
FoamFile
{
    version     2.0;
    format      ascii;
    class       dictionary;
    location    "system";
    object      fvSchemes;
}
// * * * * * * * * * * * * * * * * * * * * * * * * * * * * * * * * * * * * * //

ddtSchemes
{
    default         bounded backward;

    //
}

gradSchemes
{
    default         none;
/*    grad(T)         Gauss harmonic; // crashes...*/
    grad(T)         Gauss linear; 
}

divSchemes
{
    default         none;
}

laplacianSchemes
{
    default         Gauss harmonic uncorrected;
   laplacian((Dw*xi),phi) Gauss linear uncorrected; // floating point errror
    
}

interpolationSchemes
{
    default         none;
}

snGradSchemes
{
    default         none;
}


// ************************************************************************* //
