/*--------------------------------*- C++ -*----------------------------------*\
| =========                 |                                                 |
| \\      /  F ield         | OpenFOAM: The Open Source CFD Toolbox           |
|  \\    /   O peration     | Version:  dev                                   |
|   \\  /    A nd           | Web:      www.OpenFOAM.org                      |
|    \\/     M anipulation  |                                                 |
\*---------------------------------------------------------------------------*/
FoamFile
{
    version     2.0;
    format      ascii;
    class       dictionary;
    object      blockMeshDict;
}
// * * * * * * * * * * * * * * * * * * * * * * * * * * * * * * * * * * * * * //

convertToMeters 1;

L 0.217;
dyz 0.5e-2;
ndyz -0.5e-2;
n 217;


vertices
(
    (0 $ndyz $ndyz)
    ($L $ndyz $ndyz)
    ($L $dyz $ndyz)
    (0 $dyz $ndyz)
    (0 $ndyz $dyz)
    ($L $ndyz $dyz)
    ($L $dyz $dyz)
    (0 $dyz $dyz)
);

blocks
(
    hex (0 1 2 3 4 5 6 7) ($n 1 1) simpleGrading (1 1 1)
);

edges
(
);

boundary
(
    left
    {
        type patch;
        faces
        (
            (0 4 7 3)
        );
    }

    right
    {
        type patch;
        faces
        (
            (2 6 5 1)
        );
    }

    side
    {
        type empty;
        faces
        (
            (3 7 6 2)
            (1 5 4 0)
            (0 3 2 1)
            (4 5 6 7)
        );
    }
);

mergePatchPairs
(
);

// ************************************************************************* //
