/*--------------------------------*- C++ -*----------------------------------*\
| =========                 |                                                 |
| \\      /  F ield         | OpenFOAM: The Open Source CFD Toolbox           |
|  \\    /   O peration     | Version:  dev                                   |
|   \\  /    A nd           | Web:      www.OpenFOAM.org                      |
|    \\/     M anipulation  |                                                 |
\*---------------------------------------------------------------------------*/
FoamFile
{
    version     2.0;
    format      ascii;
    class       dictionary;
    location    "system";
    object      controlDict;
}
// * * * * * * * * * * * * * * * * * * * * * * * * * * * * * * * * * * * * * //

application     solidHeatFoam;

startFrom       latestTime;

startTime       0;

stopAt          endTime;

endTime         1;

deltaT          1;

writeControl    runTime;

writeInterval   0.1;

purgeWrite      0;

writeFormat     ascii;

writePrecision  6;

writeCompression off;

timeFormat      general;

timePrecision   6;

runTimeModifiable true;

functions
{
    sampleLine 
    {
        type sets;
        functionObjectLibs ("libsampling.so");
        setFormat raw;
        interpolationScheme cellPoint;
        executeControl  writeTime;
        writeControl    writeTime;
        sets
        (
            out
            {
                type lineCell;  
                axis    x;
                start   (0  0 0);
                end     (0.217 0 0);
             }
        );
        fields (T rho cp k);
    }
}



// ************************************************************************* //
