/*--------------------------------*- C++ -*----------------------------------*\
| =========                 |                                                 |
| \\      /  F ield         | OpenFOAM: The Open Source CFD Toolbox           |
|  \\    /   O peration     | Version:  dev                                   |
|   \\  /    A nd           | Web:      www.OpenFOAM.org                      |
|    \\/     M anipulation  |                                                 |
\*---------------------------------------------------------------------------*/
FoamFile
{
    version     2.0;
    format      ascii;
    class       polyBoundaryMesh;
    location    "constant/polyMesh";
    object      boundary;
}
// * * * * * * * * * * * * * * * * * * * * * * * * * * * * * * * * * * * * * //

3
(
    insideSurface
    {
        type            patch;
        nFaces          1;
        startFace       222;
    }
    cavityInsideSurface
    {
        type            patch;
        nFaces          1;
        startFace       223;
    }
    side
    {
        type            empty;
        inGroups        1(empty);
        nFaces          892;
        startFace       224;
    }
)

// ************************************************************************* //
