/*--------------------------------*- C++ -*----------------------------------*\
  =========                 |
  \\      /  F ield         | OpenFOAM: The Open Source CFD Toolbox
   \\    /   O peration     | Website:  https://openfoam.org
    \\  /    A nd           | Version:  dev
     \\/     M anipulation  |
\*---------------------------------------------------------------------------*/
FoamFile
{
    version     2.0;
    format      ascii;
    class       polyBoundaryMesh;
    location    "constant/polyMesh";
    object      boundary;
}
// * * * * * * * * * * * * * * * * * * * * * * * * * * * * * * * * * * * * * //

3
(
    insideSurface
    {
        type            patch;
        nFaces          1;
        startFace       214;
    }
    cavityInsideSurface
    {
        type            patch;
        nFaces          1;
        startFace       215;
    }
    side
    {
        type            empty;
        inGroups        List<word> 1(empty);
        nFaces          860;
        startFace       216;
    }
)

// ************************************************************************* //
