/*--------------------------------*- C++ -*----------------------------------*\
| =========                 |                                                 |
| \\      /  F ield         | OpenFOAM: The Open Source CFD Toolbox           |
|  \\    /   O peration     | Version:  dev                                   |
|   \\  /    A nd           | Web:      www.OpenFOAM.org                      |
|    \\/     M anipulation  |                                                 |
\*---------------------------------------------------------------------------*/
FoamFile
{
    version     2.0;
    format      ascii;
    class       dictionary;
    location    "system";
    object      controlDict;
}
// * * * * * * * * * * * * * * * * * * * * * * * * * * * * * * * * * * * * * //

#include "../constant/parameters"

application     hamFoam;

startFrom       latestTime;

startTime       0;

stopAt          endTime;

endTime         $endTime;

deltaT          $deltaT;

writeControl    runTime;

writeInterval   $writeInterval;

purgeWrite      0;

writeFormat     ascii;

writePrecision  6;

writeCompression off;

timeFormat      general;

timePrecision   1;

runTimeModifiable true;

phiMax 1;
phiMin 0.0;

TMax 1000;
TMin 0;

#include "functionObjects"


// ************************************************************************* //
